4IAQ_2GM_A_2001
     RDKit          3D

 43 50  0  0  0  0  0  0  0  0999 V2000
  -10.3123  -18.9091   20.9201 C   0  0  0  0  0  0  0  0  0  0  0  0
   -9.0169  -19.6460   21.2246 C   0  0  0  0  0  0  0  0  0  0  0  0
   -8.9415  -20.0951   22.6679 C   0  0  0  0  0  0  0  0  0  0  0  0
   -7.6925  -20.1579   23.2470 C   0  0  0  0  0  0  0  0  0  0  0  0
  -10.0239  -20.5611   23.4422 C   0  0  0  0  0  0  0  0  0  0  0  0
   -9.7953  -21.0333   24.7616 C   0  0  0  0  0  0  0  0  0  0  0  0
   -8.4883  -21.0661   25.3052 C   0  0  0  0  0  0  0  0  0  0  0  0
   -7.4465  -20.6134   24.4947 C   0  0  0  0  0  0  0  0  0  0  0  0
   -6.1229  -20.5911   24.7566 N   0  0  0  0  0  0  0  0  0  0  0  0
   -5.5381  -20.1051   23.6211 C   0  0  0  0  0  0  0  0  0  0  0  0
   -6.5190  -19.8174   22.6767 C   0  0  0  0  0  0  0  0  0  0  0  0
   -6.4377  -19.3657   21.2514 C   0  0  0  0  0  0  0  0  0  0  0  0
   -7.8027  -18.7381   20.8376 C   0  0  0  0  0  0  0  0  0  0  0  0
   -7.8540  -18.4048   19.4045 N   0  0  0  0  0  0  0  0  0  0  0  0
   -6.7739  -17.4766   19.1003 C   0  0  0  0  0  0  0  0  0  0  0  0
   -9.0840  -17.6536   19.1414 C   0  0  0  0  0  0  0  0  0  0  0  0
  -10.3234  -18.4937   19.4539 C   0  0  0  0  0  0  0  0  0  0  0  0
  -11.5658  -17.7251   19.1555 C   0  0  0  0  0  0  0  0  0  0  0  0
  -11.7948  -16.6362   19.7493 O   0  0  0  0  0  0  0  0  0  0  0  0
  -12.5015  -18.2516   18.2085 N   0  0  0  0  0  0  0  0  0  0  0  0
  -13.8324  -17.7016   17.9616 C   0  0  0  0  0  0  0  0  0  0  0  0
  -14.5009  -18.4807   16.8442 C   0  0  0  0  0  0  0  0  0  0  0  0
  -13.7482  -16.3301   17.5987 O   0  0  0  0  0  0  0  0  0  0  0  0
  -14.6530  -17.7553   19.1783 C   0  0  0  0  0  0  0  0  0  0  0  0
  -14.9751  -18.8000   19.8057 O   0  0  0  0  0  0  0  0  0  0  0  0
  -15.0511  -16.4685   19.5421 N   0  0  0  0  0  0  0  0  0  0  0  0
  -14.5713  -15.5814   18.4938 C   0  0  0  0  0  0  0  0  0  0  0  0
  -13.8226  -14.5477   19.0652 O   0  0  0  0  0  0  0  0  0  0  0  0
  -15.7856  -15.0200   17.7496 C   0  0  0  0  0  0  0  0  0  0  0  0
  -15.4408  -13.8831   16.8031 C   0  0  0  0  0  0  0  0  0  0  0  0
  -16.5643  -12.8649   16.9636 C   0  0  0  0  0  0  0  0  0  0  0  0
  -17.2184  -13.1555   18.3050 C   0  0  0  0  0  0  0  0  0  0  0  0
  -16.7423  -14.4676   18.6888 N   0  0  0  0  0  0  0  0  0  0  0  0
  -17.0162  -15.0704   19.9618 C   0  0  0  0  0  0  0  0  0  0  0  0
  -18.0029  -14.6833   20.6438 O   0  0  0  0  0  0  0  0  0  0  0  0
  -16.1180  -16.1556   20.4975 C   0  0  0  0  0  0  0  0  0  0  0  0
  -15.5102  -15.7163   21.8281 C   0  0  0  0  0  0  0  0  0  0  0  0
  -14.7499  -16.8224   22.4827 C   0  0  0  0  0  0  0  0  0  0  0  0
  -13.3646  -16.7084   22.6408 C   0  0  0  0  0  0  0  0  0  0  0  0
  -12.6410  -17.7382   23.2494 C   0  0  0  0  0  0  0  0  0  0  0  0
  -13.3022  -18.8830   23.7041 C   0  0  0  0  0  0  0  0  0  0  0  0
  -14.6877  -18.9964   23.5541 C   0  0  0  0  0  0  0  0  0  0  0  0
  -15.4121  -17.9664   22.9461 C   0  0  0  0  0  0  0  0  0  0  0  0
 22 21  1  0
 31 30  1  0
 31 32  1  0
 30 29  1  0
 23 21  1  0
 23 27  1  0
 29 27  1  0
 29 33  1  0
 21 20  1  0
 21 24  1  0
 20 18  1  0
 32 33  1  0
 27 28  1  0
 27 26  1  0
 16 14  1  0
 16 17  1  0
 15 14  1  0
 33 34  1  0
 14 13  1  0
 18 17  1  0
 18 19  2  0
 17  1  1  0
 24 26  1  0
 24 25  2  0
 26 36  1  0
 34 36  1  0
 34 35  2  0
 13 12  1  0
 13  2  1  0
 12 11  1  0
  1  2  1  0
 36 37  1  0
  2  3  1  0
 11 10  2  0
 11  4  1  0
 37 38  1  0
  3  4  2  0
  3  5  1  0
 10  9  1  0
  4  8  1  0
 38 39  2  0
 38 43  1  0
 39 40  1  0
 43 42  2  0
  5  6  2  0
  9  8  1  0
 40 41  2  0
  8  7  2  0
 42 41  1  0
  6  7  1  0
A    1
C10
A    2
C11
A    3
C12
A    4
C17
A    5
C13
A    6
C14
A    7
C15
A    8
C16
A    9
N1
A   10
C2
A   11
C3
A   12
C4
A   13
C5
A   14
N6
A   15
C7
A   16
C8
A   17
C9
A   18
C18
A   19
O19
A   20
N20
A   21
C21
A   22
C22
A   23
O43
A   24
C23
A   25
O24
A   26
N25
A   27
C41
A   28
O42
A   29
C40
A   30
C39
A   31
C38
A   32
C37
A   33
N36
A   34
C34
A   35
O35
A   36
C26
A   37
C27
A   38
C28
A   39
C29
A   40
C30
A   41
C31
A   42
C32
A   43
C33
M  END
