
     RDKit          3D

 13 15  0  0  0  0  0  0  0  0999 V2000
   -5.6517  -13.3759   26.1754 C   0  0  0  0  0  0  0  0  0  0  0  0
   -9.8572  -12.3249   28.5060 C   0  0  0  0  0  0  0  0  0  0  0  0
   -9.1794  -13.1930   27.4538 C   0  0  0  0  0  0  0  0  0  0  0  0
   -4.6314  -11.2889   27.0115 C   0  0  0  0  0  0  0  0  0  0  0  0
   -7.1718  -13.5459   25.9239 C   0  0  0  0  0  0  0  0  0  0  0  0
   -8.0898  -12.4900   26.6148 C   0  0  0  0  0  0  0  0  0  0  0  0
   -4.8242  -12.2431   28.1901 C   0  0  0  0  0  0  0  0  0  0  0  0
   -5.2629  -13.5958   27.6415 C   0  0  0  0  0  0  0  0  0  0  0  0
   -2.6297  -12.7520   26.0800 C   0  0  0  0  0  0  0  0  0  0  0  0
   -5.1431  -11.9873   25.7618 C   0  0  0  0  0  0  0  0  0  0  0  0
   -8.8666  -13.3954   28.9304 C   0  0  0  0  0  0  0  0  0  0  0  0
   -3.6561  -11.6260   25.8775 C   0  0  0  0  0  0  0  0  0  0  0  0
   -8.7761  -11.5951   25.5715 C   0  0  0  0  0  0  0  0  0  0  0  0
  3  2  1  0
  5  1  1  0
  6  3  1  0
  6  5  1  0
  7  4  1  0
  8  1  1  0
  8  7  1  0
 10  1  1  0
 10  4  1  0
 11  2  1  0
 11  3  1  0
 12  4  1  0
 12  9  1  0
 12 10  1  0
 13  6  1  0
M  END
$$$$
