
     RDKit          3D

 35 38  0  0  0  0  0  0  0  0999 V2000
   37.0050   -0.2176   24.5507 Cl  0  0  0  0  0  0  0  0  0  0  0  0
   34.0131    0.5774   27.3860 C   0  0  0  0  0  0  0  0  0  0  0  0
   34.7228    0.0794   26.0144 C   0  0  0  0  0  0  0  0  0  0  0  0
   34.0456   -1.2837   25.4602 C   0  0  0  0  0  0  0  0  0  0  0  0
   34.7303   -2.6648   25.5171 C   0  0  0  0  0  0  0  0  0  0  0  0
   35.6831   -2.1387   27.9153 C   0  0  0  0  0  0  0  0  0  0  0  0
   32.8070    1.3566   28.8093 C   0  0  0  0  0  0  0  0  0  0  0  0
   35.9466   -2.7659   26.4341 C   0  0  0  0  0  0  0  0  0  0  0  0
   33.8744   -4.2410   28.3591 C   0  0  0  0  0  0  0  0  0  0  0  0
   30.6902    2.4507   28.1285 C   0  0  0  0  0  0  0  0  0  0  0  0
   33.2250   -1.1694   24.3275 O   0  0  0  0  0  0  0  0  0  0  0  0
   31.8862    5.9686   31.7416 P   0  0  0  0  0  0  0  0  0  0  0  0
   33.7220    2.0186   27.7834 C   0  0  0  0  0  0  0  0  0  0  0  0
   32.9160    0.0022   28.1759 N   0  0  0  0  0  0  0  0  0  0  0  0
   31.5900   -0.3862   27.4996 C   0  0  0  0  0  0  0  0  0  0  0  0
   30.8142    2.0349   30.6096 C   0  0  0  0  0  0  0  0  0  0  0  0
   31.6135    1.1532   31.8170 C   0  0  0  0  0  0  0  0  0  0  0  0
   36.6061   -1.5239   26.8906 C   0  0  0  0  0  0  0  0  0  0  0  0
   33.6325    5.4643   32.3974 C   0  0  0  0  0  0  0  0  0  0  0  0
   33.8890    3.9763   32.2036 C   0  0  0  0  0  0  0  0  0  0  0  0
   33.6900    0.6341   34.0987 C   0  0  0  0  0  0  0  0  0  0  0  0
   31.3874    1.8969   29.1453 C   0  0  0  0  0  0  0  0  0  0  0  0
   36.2494   -0.1263   26.1845 C   0  0  0  0  0  0  0  0  0  0  0  0
   35.0124   -3.2718   28.7770 C   0  0  0  0  0  0  0  0  0  0  0  0
   31.3786    7.6717   32.1886 C   0  0  0  0  0  0  0  0  0  0  0  0
   33.7387    6.5079   31.3802 C   0  0  0  0  0  0  0  0  0  0  0  0
   34.0502    0.3131   35.7383 C   0  0  0  0  0  0  0  0  0  0  0  0
   32.8167    3.1508   33.0323 C   0  0  0  0  0  0  0  0  0  0  0  0
   35.3490    3.6746   32.7484 C   0  0  0  0  0  0  0  0  0  0  0  0
   32.8879    1.5966   32.8555 C   0  0  0  0  0  0  0  0  0  0  0  0
   33.5836    6.7589   29.8643 C   0  0  0  0  0  0  0  0  0  0  0  0
   34.1880    5.8034   28.8362 C   0  0  0  0  0  0  0  0  0  0  0  0
   34.8468   -1.1069   36.3302 C   0  0  0  0  0  0  0  0  0  0  0  0
   36.2821   -2.2411   38.6711 C   0  0  0  0  0  0  0  0  0  0  0  0
   35.3704   -1.1745   37.8605 C   0  0  0  0  0  0  0  0  0  0  0  0
  3  2  1  0
  4  3  1  0
  5  4  1  0
  8  5  1  0
  8  6  1  0
 11  4  1  0
 13  2  1  0
 13  7  1  0
 14  2  1  0
 14  7  1  0
 15 14  1  0
 17 16  1  0
 18  6  1  0
 18  8  1  0
 19 12  1  0
 20 19  1  0
 22  7  1  0
 22 10  2  0
 22 16  1  0
 23  1  1  0
 23  3  1  0
 23 18  1  0
 24  6  1  0
 24  9  1  0
 25 12  1  0
 26 12  1  0
 26 19  1  0
 27 21  1  0
 28 20  1  0
 29 20  1  0
 30 17  1  0
 30 21  1  0
 30 28  1  0
 31 26  1  0
 32 31  1  0
 33 27  1  0
 35 33  1  0
 35 34  1  0
M  END
$$$$
