
     RDKit          3D

 19 23  0  0  0  0  0  0  0  0999 V2000
   61.2754    6.0965   40.2229 N   0  0  0  0  0  0  0  0  0  0  0  0
   62.2742    5.7356   36.7830 C   0  0  0  0  0  0  0  0  0  0  0  0
   61.4935    4.4535   34.8014 C   0  0  0  0  0  0  0  0  0  0  0  0
   61.3006    6.4079   38.7864 C   0  0  0  0  0  0  0  0  0  0  0  0
   63.0443    1.9771   35.8918 F   0  0  0  0  0  0  0  0  0  0  0  0
   59.7849    6.2462   35.1905 O   0  0  0  0  0  1  0  0  0  0  0  0
   60.1884    4.0725   34.4424 O   0  0  0  0  0  0  0  0  0  0  0  0
   62.5415    2.9608   36.8072 C   0  0  0  0  0  0  0  0  0  0  0  0
   63.6494    3.3759   37.7511 C   0  0  0  0  0  0  0  0  0  0  0  0
   62.7505    1.4012   38.9493 C   0  0  0  0  0  0  0  0  0  0  0  0
   61.6936    0.7753   38.0670 C   0  0  0  0  0  0  0  0  0  0  0  0
   60.4987    5.4510   34.3061 C   0  0  0  0  0  0  0  0  0  0  0  0
   61.6635    3.6541   39.7697 C   0  0  0  0  0  0  0  0  0  0  0  0
   62.0461    4.8772   40.6226 C   0  0  0  0  0  0  0  0  0  0  0  0
   61.8606    2.2841   37.9939 C   0  0  0  0  0  0  0  0  0  0  0  0
   62.7933    2.9200   38.9564 C   0  0  0  0  0  0  0  0  0  0  0  0
   60.5468    5.8656   32.9031 N   0  0  0  0  0  2  0  0  0  0  0  0
   62.4619    5.8723   38.1814 O   0  0  0  0  0  0  0  0  0  0  0  0
   61.7022    4.3148   36.3285 C   0  0  0  0  0  0  0  0  0  0  0  0
  4  1  1  0
  7  3  1  0
  8  5  1  0
  9  8  1  0
 11 10  1  0
 12  3  1  0
 12  6  1  0
 12  7  1  0
 14  1  1  0
 14 13  1  0
 15  8  1  0
 15 10  1  0
 15 11  1  0
 16  9  1  0
 16 10  1  0
 16 13  1  0
 16 15  1  0
 17 12  1  0
 18  2  1  0
 18  4  1  0
 19  2  1  0
 19  3  1  0
 19  8  1  0
M  RAD  2   6   2  17   2
M  END
$$$$
