
     RDKit          3D

 45 57  0  0  0  0  0  0  0  0999 V2000
   64.9708   -9.8202   21.5229 N   0  0  0  0  0  0  0  0  0  0  0  0
   59.4151  -11.4048   21.4882 C   0  0  0  0  0  0  0  0  0  0  0  0
   57.9652  -10.5555   23.3667 N   0  0  0  0  0  0  0  0  0  0  0  0
   57.4225  -10.8538   25.6678 C   0  0  0  0  0  0  0  0  0  0  0  0
   59.7511  -14.0557   22.6346 C   0  0  0  0  0  0  0  0  0  0  0  0
   58.2233   -9.7325   26.4973 C   0  0  0  0  0  0  0  0  0  0  0  0
   58.5535  -14.7189   24.4551 C   0  0  0  0  0  0  0  0  0  0  0  0
   63.0459   -8.3216   24.4390 C   0  0  0  0  0  0  0  0  0  0  0  0
   64.2836   -7.6319   24.8510 O   0  0  0  0  0  0  0  0  0  0  0  0
   59.4360  -11.2300   26.8463 C   0  0  0  0  0  0  0  0  0  0  0  0
   57.2458  -14.3739   24.0817 C   0  0  0  0  0  0  0  0  0  0  0  0
   64.3505   -8.6201   22.6108 C   0  0  0  0  0  0  0  0  0  0  0  0
   63.2675  -11.9411   24.2332 C   0  0  0  0  0  0  0  0  0  0  0  0
   61.3377  -13.3882   27.6509 C   0  0  0  0  0  0  0  0  0  0  0  0
   57.6152  -14.1103   26.1231 C   0  0  0  0  0  0  0  0  0  0  0  0
   61.5080   -8.8194   26.1286 C   0  0  0  0  0  0  0  0  0  0  0  0
   63.4163  -10.4821   22.5706 C   0  0  0  0  0  0  0  0  0  0  0  0
   63.8967  -10.2393   25.5307 C   0  0  0  0  0  0  0  0  0  0  0  0
   57.5952  -16.2900   25.0274 C   0  0  0  0  0  0  0  0  0  0  0  0
   56.8013  -12.7472   26.8449 C   0  0  0  0  0  0  0  0  0  0  0  0
   62.0956   -9.8287   24.2698 C   0  0  0  0  0  0  0  0  0  0  0  0
   60.0614  -14.8944   21.4438 C   0  0  0  0  0  0  0  0  0  0  0  0
   60.8678  -15.0458   23.9468 C   0  0  0  0  0  0  0  0  0  0  0  0
   57.4403  -12.1590   27.8883 C   0  0  0  0  0  0  0  0  0  0  0  0
   61.7277  -11.0791   22.1639 C   0  0  0  0  0  0  0  0  0  0  0  0
   60.9482  -17.3198   25.5548 C   0  0  0  0  0  0  0  0  0  0  0  0
   57.9133  -13.5260   25.0530 C   0  0  0  0  0  0  0  0  0  0  0  0
   61.0452  -10.5408   28.7221 C   0  0  0  0  0  0  0  0  0  0  0  0
   62.7206  -13.7885   26.8025 C   0  0  0  0  0  0  0  0  0  0  0  0
   58.7578   -9.0513   24.8884 C   0  0  0  0  0  0  0  0  0  0  0  0
   57.7237  -12.9090   23.2011 C   0  0  0  0  0  0  0  0  0  0  0  0
   56.7784  -18.7672   26.8164 C   0  0  0  0  0  0  0  0  0  0  0  0
   57.7107   -7.9787   26.8549 C   0  0  0  0  0  0  0  0  0  0  0  0
   59.0285  -16.0998   25.2701 C   0  0  0  0  0  0  0  0  0  0  0  0
   59.3107  -13.4153   25.2556 C   0  0  0  0  0  0  0  0  0  0  0  0
   58.7476  -17.4390   25.7773 C   0  0  0  0  0  0  0  0  0  0  0  0
   60.8581  -19.3489   26.0351 C   0  0  0  0  0  0  0  0  0  0  0  0
   58.9969  -12.2027   30.9285 C   0  0  0  0  0  0  0  0  0  0  0  0
   59.6716  -11.0613   28.4479 O   0  0  0  0  0  0  0  0  0  0  0  0
   61.8393  -14.5892   25.8747 C   0  0  0  0  0  0  0  0  0  0  0  0
   61.2501  -12.9088   24.8051 C   0  0  0  0  0  0  0  0  0  0  0  0
   62.5669  -15.1366   27.5973 C   0  0  0  0  0  0  0  0  0  0  0  0
   59.8358  -12.1059   23.4512 C   0  0  0  0  0  0  0  0  0  0  0  0
   60.3515  -12.4615   25.1401 C   0  0  0  0  0  0  0  0  0  0  0  0
   59.2222  -10.6428   29.7866 C   0  0  0  0  0  0  0  0  0  0  0  0
  3  2  1  0
  4  3  1  0
  5  2  1  0
  6  4  1  0
  7  5  1  0
  9  8  2  0
 10  4  1  0
 10  6  1  0
 12  1  1  0
 12  8  1  0
 14 10  1  0
 15  7  1  0
 16  8  1  0
 17  1  1  0
 17 13  1  0
 18 13  1  0
 19 11  1  0
 20 15  1  0
 21 16  1  0
 21 18  1  0
 22  5  1  0
 23  5  1  0
 23 13  1  0
 24 20  2  0
 25  2  1  0
 25 17  1  0
 25 21  1  0
 27  7  1  0
 27 11  1  0
 27 15  1  0
 28 16  1  0
 29 14  1  0
 30  6  1  0
 31 11  1  0
 33  6  1  0
 33 30  1  0
 34  7  1  0
 34 19  1  0
 34 26  1  0
 35 27  1  0
 36 19  1  0
 36 23  1  0
 36 32  1  0
 37 26  1  0
 39 10  1  0
 40 29  1  0
 41 40  1  0
 42 14  1  0
 42 29  1  0
 43 31  1  0
 43 41  1  0
 44 35  1  0
 44 41  1  0
 44 43  1  0
 45 28  1  0
 45 38  1  0
 45 39  1  0
M  END
$$$$
