
     RDKit          3D

 11 11  0  0  0  0  0  0  0  0999 V2000
   26.9773   -6.9804   24.3805 O   0  0  0  0  0  0  0  0  0  0  0  0
   28.0183   -6.1627   25.5186 P   0  0  0  0  0  0  0  0  0  0  0  0
   28.1959   -3.6034   27.7037 Mg  0  0  0  0  0  2  0  0  0  0  0  0
   25.7644   -4.9982   23.6574 C   0  0  0  0  0  0  0  0  0  0  0  0
   26.7188   -3.9690   24.3191 C   0  0  0  0  0  0  0  0  0  0  0  0
   26.9968   -2.4029   26.3561 C   0  0  0  0  0  0  0  0  0  0  0  0
   29.3066   -4.7204   28.9423 O   0  0  0  0  0  0  0  0  0  0  0  0
   25.7161   -6.3476   24.4108 C   0  0  0  0  0  0  0  0  0  0  0  0
   26.0736   -3.3490   25.5921 C   0  0  0  0  0  0  0  0  0  0  0  0
   28.1183   -4.5786   24.5457 C   0  0  0  0  0  0  0  0  0  0  0  0
   24.6967   -7.2741   23.7529 C   0  0  0  0  0  0  0  0  0  0  0  0
  2  1  1  0
  5  4  1  0
  6  3  1  0
  7  3  1  0
  8  1  1  0
  8  4  1  0
  9  5  1  0
  9  6  1  0
 10  2  1  0
 10  5  1  0
 11  8  1  0
M  END
$$$$
