
     RDKit          3D

 34 38  0  0  0  0  0  0  0  0999 V2000
   16.0713  -24.0316   30.7966 O   0  0  0  0  0  0  0  0  0  0  0  0
   15.8874  -26.7696   28.1351 C   0  0  0  0  0  0  0  0  0  0  0  0
   15.9947  -29.2893   33.2124 C   0  0  0  0  0  0  0  0  0  0  0  0
   14.0240  -27.9660   30.9229 C   0  0  0  0  0  0  0  0  0  0  0  0
   11.8426  -27.3430   33.8580 C   0  0  0  0  0  0  0  0  0  0  0  0
   12.6057  -29.1337   34.2045 C   0  0  0  0  0  0  0  0  0  0  0  0
   13.8653  -24.6062   28.4507 C   0  0  0  0  0  0  0  0  0  0  0  0
   14.7876  -24.8631   29.8321 C   0  0  0  0  0  0  0  0  0  0  0  0
   14.7581  -26.9896   35.3187 O   0  0  0  0  0  0  0  0  0  0  0  0
   14.2931  -29.7817   31.9995 C   0  0  0  0  0  0  0  0  0  0  0  0
   17.7851  -27.6317   28.2412 C   0  0  0  0  0  0  0  0  0  0  0  0
   14.9892  -28.2772   27.2041 C   0  0  0  0  0  0  0  0  0  0  0  0
   13.9244  -27.2949   33.8059 C   0  0  0  0  0  0  0  0  0  0  0  0
   16.0605  -30.7779   29.0687 C   0  0  0  0  0  0  0  0  0  0  0  0
   12.4352  -26.0096   32.0199 C   0  0  0  0  0  0  0  0  0  0  0  0
   12.6731  -26.7912   34.5354 C   0  0  0  0  0  0  0  0  0  0  0  0
   11.6638  -25.3473   30.7565 C   0  0  0  0  0  0  0  0  0  0  0  0
   14.1821  -25.2775   31.3142 C   0  0  0  0  0  0  0  0  0  0  0  0
   16.0197  -25.4460   29.9458 C   0  0  0  0  0  0  0  0  0  0  0  0
   12.6979  -24.3358   29.4379 C   0  0  0  0  0  0  0  0  0  0  0  0
   15.8246  -28.5614   34.2548 C   0  0  0  0  0  0  0  0  0  0  0  0
   17.3051  -25.6360   32.4665 C   0  0  0  0  0  0  0  0  0  0  0  0
   16.1113  -26.2820   31.3074 C   0  0  0  0  0  0  0  0  0  0  0  0
   17.8478  -29.4502   31.1922 C   0  0  0  0  0  0  0  0  0  0  0  0
   17.2373  -27.7673   34.0436 C   0  0  0  0  0  0  0  0  0  0  0  0
   16.0020  -29.9275   30.7241 C   0  0  0  0  0  0  0  0  0  0  0  0
   12.0640  -22.8487   28.7603 C   0  0  0  0  0  0  0  0  0  0  0  0
   13.9328  -28.3713   33.9464 N   0  0  0  0  0  0  0  0  0  0  0  0
   18.8630  -30.1948   30.5178 O   0  0  0  0  0  0  0  0  0  0  0  0
   19.9890  -29.3427   30.1456 C   0  0  0  0  0  0  0  0  0  0  0  0
   19.3128  -28.0706   29.3095 C   0  0  0  0  0  0  0  0  0  0  0  0
   20.9494  -28.1259   30.1297 C   0  0  0  0  0  0  0  0  0  0  0  0
   21.0727  -29.5820   31.5921 C   0  0  0  0  0  0  0  0  0  0  0  0
   21.4520  -28.1085   31.7361 C   0  0  0  0  0  0  0  0  0  0  0  0
  4  3  1  0
  6  5  1  0
  8  7  1  0
 11  2  1  0
 12  2  1  0
 13  9  1  0
 13 10  1  0
 15  5  1  0
 16  5  1  0
 16 13  1  0
 17 15  1  0
 18  8  1  0
 18 15  1  0
 19  1  1  0
 19  2  1  0
 19  8  1  0
 20  7  1  0
 20 17  1  0
 21  3  1  0
 23 18  1  0
 23 19  1  0
 23 22  1  0
 25 21  1  0
 26 10  1  0
 26 14  1  0
 26 24  1  0
 27 20  2  0
 28  6  1  0
 28 16  1  0
 28 21  1  0
 29 24  1  0
 30 29  1  0
 31 11  1  0
 31 30  2  0
 32 31  1  0
 33 30  1  0
 34 32  2  0
 34 33  1  0
M  END
$$$$
